Version 4
SHEET 1 1460 692
WIRE 416 -96 416 -128
WIRE 320 -80 320 -128
WIRE 544 -32 544 -64
WIRE 640 -32 640 -64
WIRE 320 16 320 -16
WIRE 416 16 416 -16
WIRE 640 64 640 48
WIRE 784 64 640 64
WIRE 640 80 640 64
WIRE 144 112 48 112
WIRE 288 112 224 112
WIRE 544 112 544 48
WIRE 544 112 480 112
WIRE 608 112 544 112
WIRE 48 160 48 112
WIRE 288 208 256 208
WIRE 512 208 480 208
WIRE 48 288 48 240
WIRE 256 288 256 208
WIRE 512 288 512 208
WIRE 640 288 640 144
FLAG 512 288 0
FLAG 416 16 0
FLAG 784 64 out
IOPIN 784 64 Out
FLAG 416 -128 COM
FLAG 640 -64 COM
FLAG 544 -64 COM
FLAG 640 288 0
FLAG 256 288 0
FLAG 48 288 0
FLAG 320 16 0
FLAG 320 -128 COM
FLAG 48 112 pulse
SYMBOL Optos\\PC817A 384 160 R0
SYMATTR InstName U1
SYMBOL res 528 -48 R0
SYMATTR InstName R1
SYMATTR Value 10k
SYMBOL voltage 416 -112 R0
WINDOW 123 0 0 Left 2
WINDOW 39 0 0 Left 2
SYMATTR InstName V2
SYMATTR Value 3
SYMBOL voltage 48 144 R0
WINDOW 123 0 0 Left 2
WINDOW 39 0 0 Left 2
WINDOW 3 -29 -86 Left 2
SYMATTR Value PULSE(0 5 1m 0 0 1m 2m 100)
SYMATTR InstName V3
SYMBOL res 624 -48 R0
SYMATTR InstName R7
SYMATTR Value 1k
SYMBOL TL431ED 640 112 M0
WINDOW 3 -104 3 Left 2
SYMATTR InstName X1
SYMATTR Prefix X
SYMBOL res 240 96 R90
WINDOW 0 0 56 VBottom 2
WINDOW 3 32 56 VTop 2
SYMATTR InstName R2
SYMATTR Value 330
SYMBOL cap 304 -80 R0
SYMATTR InstName C1
SYMATTR Value 100n
TEXT 88 -24 Left 2 !.tran 0.005s
TEXT 88 -48 Left 2 !.lib TL431ED.sub
